*rhp* 1-D RADIAL HEAT PIPE                                                      
ROCKS----1----*----2----*----3----*----4----*----5----*----6----*----7----*----8
POMED    1    2550.0       0.1   2.0e-14   2.0e-14   2.0e-14       2.0     800.0
                                    0.25                                                  

RPCAP----1----*----2----*----3----*----4----*----5----*----6----*----7----*----8
    7           0.45   0.00096       1.0                                        
    7           0.45     0.001   8.0e-05   5.0e+08       1.0                    
MULTI----1----*----2----*----3----*----4----*----5----*----6----*----7----*----8
    2    3    2    6                                                            
START----1----*----2----*----3----*----4----*----5----*----6----*----7----*----8
PARAM----1-MOP: 123456789*123456789*1234----*----5----*----6----*----7----*----8
   2 250     2501   3          47 1 6                    1.8                    
           3.156e+08      -1.0                                                  
    1000.0    9000.0   90000.0  400000.0                                        
   1.0e-05       1.0                                 1.0e-07                    
            100000.0                 0.2                18.0                    
TIMES----1----*----2----*----3----*----4----*----5----*----6----*----7----*----8
    3                                                                           
 3.156e+07 1.262e+08 3.156e+08                                                  
GENER----1----*----2----*----3----*----4----*----5----*----6----*----7----*----8
A11 0HTR 1                         HEAT     3000.0                              

ENDCY----1----*----2----*----3----*----4----*----5----*----6----*----7----*----8
