Simulation of CO2 leak along a fault                                            
ROCKS----1----*----2----*----3----*----4----*----5----*----6----*----7----*----8
UPPAQ    1    2260.0       0.1   1.0e-14   1.0e-14   1.0e-14       1.8    1500.0
  8.33e-10                 1.8       0.7                                                  
CENAQ    1    2260.0       0.1   1.0e-13   1.0e-13   1.0e-13       1.8    1500.0
  8.33e-10                 1.8       0.7                                                  
BASAQ    2    2260.0      0.01   1.0e-16   1.0e-16   1.0e-16       1.8    1500.0
  8.33e-10                 1.8       0.7                                                  
    3            0.3      0.05                                                  
    7          0.457       0.0  1.61e-06   5.0e+07      0.99                    
CAPRO    2    2260.0      0.01   1.0e-19   1.0e-19   1.0e-19       1.8    1500.0
  8.33e-10                 1.8       0.7                                                  
    3            0.3      0.05                                                  
    7          0.457       0.0  1.61e-06   5.0e+07      0.99                    
FAULT    1    2260.0       0.1   1.0e-13   1.0e-13   1.0e-13       1.8    1500.0
  8.33e-10                 1.8       0.7                                                  
BOUND    1    2260.0       0.1   1.0e-13   1.0e-13   1.0e-13       1.8   1.0e+55
  8.33e-10                 1.8       0.7                                                  

RPCAP----1----*----2----*----3----*----4----*----5----*----6----*----7----*----8
    3            0.3      0.05                                                  
    7          0.457       0.0  5.03e-05   5.0e+07      0.99                    
MULTI----1----*----2----*----3----*----4----*----5----*----6----*----7----*----8
    3    3    3    6                                                            
START----1----*----2----*----3----*----4----*----5----*----6----*----7----*----8
PARAM----1-MOP: 123456789*123456789*1234----*----5----*----6----*----7----*----8
    9999    9999               4    8                                           
       0.0 9.467e+078.6400e+04   1.0e+08                9.81       4.0          
    0.0001       1.0                                                            
                                                                                
                                                                                
SELEC----1----*----2----*----3----*----4----*----5----*----6----*----7----*----8
    1                                                           2              2
       0.8       0.8                                                            
TIMES----1----*----2----*----3----*----4----*----5----*----6----*----7----*----8
   12                                                                           
 7776000.0 1.555e+07 2.333e+07  3.11e+07 3.888e+07 4.666e+07 5.443e+07 6.221e+07
 6.998e+07 7.776e+07 8.554e+07 9.331e+07                                        
GENER----1----*----2----*----3----*----4----*----5----*----6----*----7----*----8
A1953                              COM3       0.02                              

OUTPU----1----*----2----*----3----*----4----*----5----*----6----*----7----*----8
2                                                                               
SATURATION              1                                                       
COORDINATE                                                                      
ENDCY----1----*----2----*----3----*----4----*----5----*----6----*----7----*----8
