Simulation of multiphase fluid flow for natural gas extraction                  
ROCKS----1----*----2----*----3----*----4----*----5----*----6----*----7----*----8
FACOR    1    2260.0       0.1   1.0e-19   1.0e-19   1.0e-19       1.8    1500.0
                           1.8       0.7                                                  
DAZON    1    2260.0       0.1   1.0e-17   1.0e-17   1.0e-17       1.8    1500.0
                           1.8       0.7                                                  
RESER    1    2260.0      0.16   1.0e-13   1.0e-13   1.0e-13       1.8    1500.0
                           1.8       0.7                                                  
CAPRO    2    2260.0      0.01   1.0e-21   1.0e-21   1.0e-21       1.8    1500.0
                           1.8       0.7                                                  
                                                                                
    7          0.457       0.0  1.61e-06   5.0e+07      0.99                    
UPAQU    1    2260.0       0.1   1.0e-14   1.0e-14   1.0e-14       1.8    1500.0
                           1.8       0.7                                                  
BROCK    2    2260.0      0.01   1.0e-13   1.0e-13   1.0e-13       1.8    1500.0
                           1.8       0.7                                                  
                                                                                
    7          0.457       0.0  1.61e-06   5.0e+07      0.99                    
BOUND    1    2260.0       0.1   1.0e-13   1.0e-13   1.0e-13       1.8   1.0e+55
                           1.8       0.7                                                  

RPCAP----1----*----2----*----3----*----4----*----5----*----6----*----7----*----8
    3            0.3      0.05                                                  
    7          0.457       0.0 5.025e-05   5.0e+07      0.99                    
MULTI----1----*----2----*----3----*----4----*----5----*----6----*----7----*----8
    2    2    2    6                                                            
START----1----*----2----*----3----*----4----*----5----*----6----*----7----*----8
PARAM----1-MOP: 123456789*123456789*1234----*----5----*----6----*----7----*----8
    9999    99991     1     0  49 1 0                                           
       0.0 3.156e+088.6400e+04 3.156e+07                9.81      10.0          
   1.0e-06    0.0001                                                            
                                                                                
                                                                                
TIMES----1----*----2----*----3----*----4----*----5----*----6----*----7----*----8
    2                                                                           
 3.156e+07 3.156e+08                                                            
ENDCY----1----*----2----*----3----*----4----*----5----*----6----*----7----*----8
